
Spectre (R) Circuit Simulator
Version 21.1.0.546.isr13 64bit -- 4 Nov 2022
Copyright (C) 1989-2022 Cadence Design Systems, Inc. All rights reserved worldwide. Cadence and Spectre are registered trademarks of Cadence Design Systems, Inc. All others are the property of their respective holders.

Includes RSA BSAFE(R) Cryptographic or Security Protocol Software from RSA Security, Inc.

User: student   Host: Cadence17   HostID: 7F0100   PID: 21359
Memory  available: 13.4247 GB  physical: 16.4928 GB
Linux   : Red Hat Enterprise Linux release 8.7 (Ootpa)
CPU Type: Intel(R) Core(TM) i5-6500 CPU @ 3.20GHz
        Socket: Processors [Frequency]
        0:       0 [3200.0],  1 [3200.0],  2 [3479.4],  3 [3467.7]
        
System load averages (1min, 5min, 15min) : 13.0 %, 7.0 %, 5.2 %
HPC is enabled


Simulating `input.scs' on Cadence17 at 12:01:45 PM, Thur Aug 28, 2025 (process id: 21359).
Current working directory: /home/student/simulation/INVERTER/spectre/schematic/netlist
Command line:
    /home/install/SPECTRE211/tools.lnx86/bin/spectre -64 input.scs  \
        +escchars +log ../psf/spectre.out -format psfxl -raw ../psf  \
        +aps +lqtimeout 900 -maxw 5 -maxn 5 -env ade

Licensing Information:
[12:01:46.260465] Configured Lic search path (21.01-s002): 5280@Cadenceserver

Licensing Information:
[12:01:46.322059] Periodic Lic check successful

Loading /home/install/SPECTRE211/tools.lnx86/cmi/lib/64bit/5.0/libinfineon_sh.so ...
Loading /home/install/SPECTRE211/tools.lnx86/cmi/lib/64bit/5.0/libphilips_o_sh.so ...
Loading /home/install/SPECTRE211/tools.lnx86/cmi/lib/64bit/5.0/libphilips_sh.so ...
Loading /home/install/SPECTRE211/tools.lnx86/cmi/lib/64bit/5.0/libsparam_sh.so ...
Loading /home/install/SPECTRE211/tools.lnx86/cmi/lib/64bit/5.0/libstmodels_sh.so ...
Reading file:  /home/student/simulation/INVERTER/spectre/schematic/netlist/input.scs
Reading file:  /home/install/SPECTRE211/tools.lnx86/spectre/etc/configs/spectre.cfg
Reading file:  /home/install/FOUNDRY/analog/90nm/models/spectre/gpdk090.scs
Reading file:  /home/install/FOUNDRY/analog/90nm/models/spectre/gpdk090_mos.scs
Reading file:  /home/install/FOUNDRY/analog/90nm/models/spectre/gpdk090_mos_iso.scs
Reading file:  /home/install/FOUNDRY/analog/90nm/models/spectre/gpdk090_resistor.scs
Reading file:  /home/install/FOUNDRY/analog/90nm/models/spectre/resd_va.va
Reading link:  /home/install/SPECTRE211/tools.lnx86/spectre/etc/ahdl/constants.h
Reading file:  /home/install/SPECTRE211/tools.lnx86/spectre/etc/ahdl/constants.vams
Reading link:  /home/install/SPECTRE211/tools.lnx86/spectre/etc/ahdl/discipline.h
Reading file:  /home/install/SPECTRE211/tools.lnx86/spectre/etc/ahdl/disciplines.vams
Reading file:  /home/install/FOUNDRY/analog/90nm/models/spectre/rnoise_va.va
Reading file:  /home/install/FOUNDRY/analog/90nm/models/spectre/gpdk090_capacitor.scs
Reading file:  /home/install/FOUNDRY/analog/90nm/models/spectre/gpdk090_diode.scs
Reading file:  /home/install/FOUNDRY/analog/90nm/models/spectre/gpdk090_bipolar.scs
Time for NDB Parsing: CPU = 72.446 ms, elapsed = 483.829 ms.
Time accumulated: CPU = 159.602 ms, elapsed = 483.832 ms.
Peak resident memory used = 146 Mbytes.

Time for Elaboration: CPU = 13.828 ms, elapsed = 13.7999 ms.
Time accumulated: CPU = 173.515 ms, elapsed = 497.716 ms.
Peak resident memory used = 154 Mbytes.


Notice from spectre during hierarchy flattening.
    The value 'psf' specified for the 'checklimitdest' option will no longer be supported in future releases. Use 'spectre -h' to see other recommended values for the 'checklimitdest' option.


Time for EDB Visiting: CPU = 519 us, elapsed = 523.09 us.
Time accumulated: CPU = 174.149 ms, elapsed = 498.351 ms.
Peak resident memory used = 154 Mbytes.


Warning from spectre during initial setup.
    WARNING (CMI-2477): PM0: `Rds' = 70.9091 uOhm is less than 0.001. Set to 0.
Notice from spectre during initial setup.
    Multithreading is disabled due to the size of the design being too small.


Global user options:
         psfversion = 1.4.0
            vabstol = 1e-06
            iabstol = 1e-12
               temp = 27
               gmin = 1e-12
             rforce = 1
           maxnotes = 5
           maxwarns = 5
             digits = 5
               cols = 80
             pivrel = 0.001
           sensfile = ../psf/sens.output
     checklimitdest = psf
               save = allpub
             reltol = 0.001
               tnom = 27
             scalem = 1
              scale = 1

Scoped user options:

Circuit inventory:
              nodes 3
            bsim3v3 2     
            vsource 2     

Analysis and control statement inventory:
                 dc 2     
               info 7     

Output statements:
             .probe 0     
           .measure 0     
               save 0     


Notice from spectre during initial setup.
    APS enabled.
Warning from spectre during initial setup.
    WARNING (CMI-2477): PM0: `Rds' = 70.9091 uOhm is less than 0.001. Set to 0.

Time for parsing: CPU = 2.103 ms, elapsed = 73.2529 ms.
Time accumulated: CPU = 176.356 ms, elapsed = 571.708 ms.
Peak resident memory used = 156 Mbytes.

~~~~~~~~~~~~~~~~~~~~~~
Pre-Simulation Summary
~~~~~~~~~~~~~~~~~~~~~~
   -   (APS) Multi-threading. The recommended number of threads is 1, consider adding +mt=1 on command line.
~~~~~~~~~~~~~~~~~~~~~~

******************
DC Analysis `dcOp'
******************

Opening the PSF file ../psf/dcOp.dc ...
Important parameter values:
    reltol = 1e-03
    abstol(V) = 1 uV
    abstol(I) = 1 pA
    temp = 27 C
    tnom = 27 C
    tempeffects = all
    gmindc = 1 pS
    rabsshort = 1 mOhm

Maximum value achieved for any signal of each quantity: 
V: V(net2) = 1.8 V
I: I(V1:p) = 6.236 nA
Convergence achieved in 2 iterations.
DC simulation time: CPU = 1.827 ms, elapsed = 24.8492 ms.
Total time required for dc analysis `dcOp': CPU = 1.9 ms, elapsed = 24.9162 ms, util. = 7.63%.
Time accumulated: CPU = 182.059 ms, elapsed = 600.453 ms.
Peak resident memory used = 159 Mbytes.

dcOpInfo: writing operating point information to rawfile.

Opening the PSF file ../psf/dcOpInfo.info ...

****************************************
DC Analysis `dc': V1:dc = (0 V -> 1.8 V)
****************************************

Opening the PSF file ../psf/dc.dc ...
Important parameter values:
    reltol = 1e-03
    abstol(V) = 1 uV
    abstol(I) = 1 pA
    temp = 27 C
    tnom = 27 C
    tempeffects = all
    gmindc = 1 pS
    rabsshort = 1 mOhm
    dc: dc = 72 mV          (4 %), step = 36 mV           (2 %)
    dc: dc = 108 mV         (6 %), step = 36 mV           (2 %)
    dc: dc = 144 mV         (8 %), step = 36 mV           (2 %)
    dc: dc = 180 mV        (10 %), step = 36 mV           (2 %)
    dc: dc = 216 mV        (12 %), step = 36 mV           (2 %)
    dc: dc = 252 mV        (14 %), step = 36 mV           (2 %)
    dc: dc = 288 mV        (16 %), step = 36 mV           (2 %)
    dc: dc = 324 mV        (18 %), step = 36 mV           (2 %)
    dc: dc = 360 mV        (20 %), step = 36 mV           (2 %)
    dc: dc = 396 mV        (22 %), step = 36 mV           (2 %)
    dc: dc = 432 mV        (24 %), step = 36 mV           (2 %)
    dc: dc = 468 mV        (26 %), step = 36 mV           (2 %)
    dc: dc = 504 mV        (28 %), step = 36 mV           (2 %)
    dc: dc = 540 mV        (30 %), step = 36 mV           (2 %)
    dc: dc = 576 mV        (32 %), step = 36 mV           (2 %)
    dc: dc = 612 mV        (34 %), step = 36 mV           (2 %)
    dc: dc = 648 mV        (36 %), step = 36 mV           (2 %)
    dc: dc = 684 mV        (38 %), step = 36 mV           (2 %)
    dc: dc = 720 mV        (40 %), step = 36 mV           (2 %)
    dc: dc = 756 mV        (42 %), step = 36 mV           (2 %)
    dc: dc = 792 mV        (44 %), step = 36 mV           (2 %)
    dc: dc = 828 mV        (46 %), step = 36 mV           (2 %)
    dc: dc = 864 mV        (48 %), step = 36 mV           (2 %)
    dc: dc = 900 mV        (50 %), step = 36 mV           (2 %)
    dc: dc = 936 mV        (52 %), step = 36 mV           (2 %)
    dc: dc = 972 mV        (54 %), step = 36 mV           (2 %)
    dc: dc = 1.008 V       (56 %), step = 36 mV           (2 %)
    dc: dc = 1.044 V       (58 %), step = 36 mV           (2 %)
    dc: dc = 1.08 V        (60 %), step = 36 mV           (2 %)
    dc: dc = 1.116 V       (62 %), step = 36 mV           (2 %)
    dc: dc = 1.152 V       (64 %), step = 36 mV           (2 %)
    dc: dc = 1.188 V       (66 %), step = 36 mV           (2 %)
    dc: dc = 1.224 V       (68 %), step = 36 mV           (2 %)
    dc: dc = 1.26 V        (70 %), step = 36 mV           (2 %)
    dc: dc = 1.296 V       (72 %), step = 36 mV           (2 %)
    dc: dc = 1.332 V       (74 %), step = 36 mV           (2 %)
    dc: dc = 1.368 V       (76 %), step = 36 mV           (2 %)
    dc: dc = 1.404 V       (78 %), step = 36 mV           (2 %)
    dc: dc = 1.44 V        (80 %), step = 36 mV           (2 %)
    dc: dc = 1.476 V       (82 %), step = 36 mV           (2 %)
    dc: dc = 1.512 V       (84 %), step = 36 mV           (2 %)
    dc: dc = 1.548 V       (86 %), step = 36 mV           (2 %)
    dc: dc = 1.584 V       (88 %), step = 36 mV           (2 %)
    dc: dc = 1.62 V        (90 %), step = 36 mV           (2 %)
    dc: dc = 1.656 V       (92 %), step = 36 mV           (2 %)
    dc: dc = 1.692 V       (94 %), step = 36 mV           (2 %)
    dc: dc = 1.728 V       (96 %), step = 36 mV           (2 %)
    dc: dc = 1.764 V       (98 %), step = 36 mV           (2 %)
    dc: dc = 1.8 V        (100 %), step = 36 mV           (2 %)

Maximum value achieved for any signal of each quantity: 
V: V(net2) = 1.8 V
I: I(V1:p) = 6.236 nA
DC simulation time: CPU = 5.249 ms, elapsed = 28.2421 ms.

Notice from spectre at dc = 1.8 V during DC analysis `dc'.
    The value of parameter 'dc' has been reset to the original value 1.8.

Total time required for dc analysis `dc': CPU = 5.279 ms, elapsed = 28.27 ms, util. = 18.7%.
Time accumulated: CPU = 189.324 ms, elapsed = 675.894 ms.
Peak resident memory used = 161 Mbytes.

modelParameter: writing model parameter values to rawfile.

Opening the PSF file ../psf/modelParameter.info ...
element: writing instance parameter values to rawfile.

Opening the PSF file ../psf/element.info ...
outputParameter: writing output parameter values to rawfile.

Opening the PSF file ../psf/outputParameter.info ...
designParamVals: writing netlist parameters to rawfile.

Opening the PSFASCII file ../psf/designParamVals.info ...
primitives: writing primitives to rawfile.

Opening the PSFASCII file ../psf/primitives.info.primitives ...
subckts: writing subcircuits to rawfile.

Opening the PSFASCII file ../psf/subckts.info.subckts ...
Licensing Information:
Lic Summary:
[12:01:46.276218] Cdslmd servers:5280@Cadenceserver
[12:01:46.276242] Feature usage summary:
[12:01:46.276242] Virtuoso_Multi_mode_Simulation


Aggregate audit (12:01:46 PM, Thur Aug 28, 2025):
Time used: CPU = 200 ms, elapsed = 939 ms, util. = 21.3%.
Time spent in licensing: elapsed = 616 ms, percentage of total = 65.7%.
Peak memory used = 163 Mbytes.
Simulation started at: 12:01:45 PM, Thur Aug 28, 2025, ended at: 12:01:46 PM, Thur Aug 28, 2025, with elapsed time (wall clock): 939 ms.
spectre completes with 0 errors, 2 warnings, and 5 notices.
